74

C          0.99606       -0.07471       -0.06919
C          2.49750       -0.07013       -0.06991
C          3.02169        1.34105       -0.28957
C          4.53648        1.34830       -0.29070
C          5.04730        2.75779       -0.51010
C          6.56292        2.76390       -0.51105
C          7.07398        4.17380       -0.73051
C          8.58958        4.17993       -0.73147
C          9.10063        5.58981       -0.95093
C         10.61624        5.59595       -0.95188
C         11.12729        7.00583       -1.17134
C         12.64290        7.01197       -1.17230
C         13.15395        8.42185       -1.39176
C         14.66956        8.42799       -1.39272
C         15.18061        9.83787       -1.61218
C         16.69622        9.84400       -1.61313
C         17.20727       11.25389       -1.83259
C         18.72287       11.26002       -1.83355
C         19.23393       12.66991       -2.05301
C         20.74955       12.67603       -2.05396
C         21.26037       14.08551       -2.27336
C         22.77516       14.09276       -2.27449
C         23.29935       15.50394       -2.49416
C         24.80079       15.50853       -2.49487
H          0.61366       -1.08303        0.08776
H          0.60516        0.29651       -1.02956
H          0.60516        0.57085        0.73291
H          2.87517       -0.72910       -0.86460
H          2.87517       -0.45637        0.88748
H          2.64819        1.99884        0.50449
H          2.64819        1.72636       -1.24600
H          4.90925        0.69061       -1.08478
H          4.90925        0.96309        0.66573
H          4.67445        3.41503        0.28407
H          4.67445        3.14254       -1.46645
H          6.93577        2.10666       -1.30521
H          6.93577        2.37914        0.44531
H          6.70112        4.83105        0.06364
H          6.70112        4.55856       -1.68687
H          8.96243        3.52268       -1.52562
H          8.96243        3.79516        0.22489
H          8.72778        6.24706       -0.15677
H          8.72778        5.97458       -1.90728
H         10.98909        4.93869       -1.74604
H         10.98909        5.21118        0.00447
H         10.75444        7.66308       -0.37719
H         10.75444        7.39060       -2.12770
H         13.01575        6.35471       -1.96646
H         13.01575        6.62720       -0.21595
H         12.78110        9.07910       -0.59761
H         12.78110        8.80662       -2.34812
H         15.04241        7.77073       -2.18687
H         15.04241        8.04322       -0.43636
H         14.80776       10.49512       -0.81802
H         14.80776       10.22264       -2.56853
H         17.06907        9.18675       -2.40729
H         17.06907        9.45923       -0.65678
H         16.83442       11.91114       -1.03844
H         16.83442       11.63866       -2.78895
H         19.09573       10.60277       -2.62771
H         19.09573       10.87525       -0.87720
H         18.86108       13.32716       -1.25885
H         18.86108       13.05467       -3.00937
H         21.12240       12.01879       -2.84813
H         21.12240       12.29128       -1.09761
H         20.88760       14.74321       -1.47928
H         20.88760       14.47073       -3.22979
H         23.14866       13.43498       -3.06855
H         23.14866       13.70745       -1.31807
H         22.92168       16.16291       -1.69947
H         22.92168       15.89019       -3.45154
H         25.19169       15.13731       -1.53450
H         25.18319       16.51685       -2.65182
H         25.19169       14.86297       -3.29697
