98

C          0.95951        0.04775       -0.08009
C          2.46043        0.04302       -0.07701
C          2.98507       -1.15345        0.70244
C          4.50001       -1.15944        0.70635
C          5.01069       -2.35482        1.48509
C          6.52643       -2.35985        1.48836
C          7.03736       -3.55556        2.26732
C          8.55309       -3.56061        2.27061
C          9.06402       -4.75631        3.04955
C         10.57975       -4.76136        3.05284
C         11.09067       -5.95705        3.83179
C         12.60641       -5.96211        3.83508
C         13.11734       -7.15780        4.61403
C         14.63307       -7.16286        4.61732
C         15.14400       -8.35855        5.39626
C         16.65973       -8.36361        5.39956
C         17.17066       -9.55930        6.17850
C         18.68639       -9.56436        6.18179
C         19.19732      -10.76005        6.96074
C         20.71305      -10.76511        6.96403
C         21.22398      -11.96080        7.74298
C         22.73972      -11.96585        7.74627
C         23.25064      -13.16155        8.52521
C         24.76637      -13.16660        8.52850
C         25.27730      -14.36230        9.30745
C         26.79303      -14.36735        9.31074
C         27.30396      -15.56305       10.08969
C         28.81970      -15.56809       10.09297
C         29.33038      -16.76347       10.87171
C         30.84532      -16.76946       10.87562
C         31.36996      -17.96593       11.65506
C         32.87088      -17.97066       11.65815
H          0.57866        0.90184       -0.63650
H          0.56786        0.10288        0.94862
H          0.56786       -0.87094       -0.54622
H          2.83862        0.97044        0.37705
H          2.83862        0.00246       -1.10881
H          2.61162       -2.07922        0.24828
H          2.61162       -1.11213        1.73279
H          4.87273       -0.23376        1.16061
H          4.87273       -1.20089       -0.32395
H          4.63788       -3.28013        1.03058
H          4.63787       -2.31300        2.51515
H          6.89924       -1.43454        1.94286
H          6.89925       -2.40167        0.45830
H          6.66454       -4.48088        1.81282
H          6.66454       -3.51376        3.29738
H          8.92590       -2.63529        2.72510
H          8.92590       -3.60241        1.24054
H          8.69120       -5.68163        2.59506
H          8.69120       -4.71450        4.07962
H         10.95256       -3.83603        3.50733
H         10.95256       -4.80316        2.02278
H         10.71786       -6.88238        3.37730
H         10.71786       -5.91525        4.86185
H         12.97922       -5.03678        4.28957
H         12.97922       -6.00391        2.80501
H         12.74452       -8.08313        4.15953
H         12.74452       -7.11600        5.64409
H         15.00588       -6.23753        5.07181
H         15.00588       -7.20466        3.58725
H         14.77119       -9.28388        4.94177
H         14.77119       -8.31675        6.42633
H         17.03254       -7.43828        5.85405
H         17.03254       -8.40541        4.36949
H         16.79785      -10.48463        5.72401
H         16.79785       -9.51750        7.20857
H         19.05920       -8.63903        6.63628
H         19.05920       -9.60616        5.15173
H         18.82451      -11.68538        6.50625
H         18.82451      -10.71825        7.99080
H         21.08587       -9.83978        7.41852
H         21.08587      -10.80691        5.93396
H         20.85117      -12.88612        7.28848
H         20.85117      -11.91900        8.77304
H         23.11253      -11.04053        8.20076
H         23.11253      -12.00766        6.71620
H         22.87783      -14.08687        8.07072
H         22.87783      -13.11975        9.55528
H         25.13919      -12.24128        8.98300
H         25.13919      -13.20841        7.49844
H         24.90449      -15.28762        8.85296
H         24.90449      -14.32050       10.33752
H         27.16585      -13.44203        9.76523
H         27.16585      -14.40915        8.28067
H         26.93115      -16.48837        9.63519
H         26.93114      -15.52124       11.11975
H         29.19251      -14.64278       10.54748
H         29.19251      -15.60991        9.06291
H         28.95766      -17.68915       10.41745
H         28.95766      -16.72202       11.90201
H         31.21877      -15.84369       11.32978
H         31.21877      -16.81078        9.84527
H         30.99177      -18.89335       11.20100
H         30.99177      -17.92537       12.68687
H         33.26253      -18.02578       10.62944
H         33.25173      -18.82475       12.21455
H         33.26253      -17.05197       12.12427
