10

N         -3.10209        0.42710        0.00000
C         -1.65533        0.42710        0.00000
C         -1.13384        0.42710        1.43350
O         -1.86354        0.42710        2.42187
H         -1.30321       -0.46889       -0.52238
H         -1.30236        1.32011       -0.52356
H         -3.57432        0.42458        0.89965
H         -3.61009        0.50379       -0.87653
O          0.20864        0.42710        1.58498
H          0.84061        0.42710        0.72900
